Version 4
SHEET 1 908 680
WIRE -48 -192 -272 -192
WIRE 192 -192 112 -192
WIRE 112 -160 112 -192
WIRE -272 -144 -272 -192
WIRE 64 -144 32 -144
WIRE -48 -112 -48 -192
WIRE 48 -112 -48 -112
WIRE 48 -96 48 -112
WIRE 64 -96 48 -96
WIRE 32 -64 32 -144
WIRE 32 -64 -48 -64
WIRE -272 -16 -272 -64
WIRE -176 -16 -272 -16
WIRE -48 -16 -48 -64
WIRE -48 -16 -176 -16
WIRE 192 -16 192 -192
WIRE 192 -16 96 -16
WIRE -176 0 -176 -16
WIRE 192 0 192 -16
WIRE 320 0 192 0
WIRE 144 48 -112 48
WIRE -608 80 -800 80
WIRE -480 80 -608 80
WIRE -112 80 -112 48
WIRE -800 96 -800 80
WIRE -800 96 -992 96
WIRE 320 112 320 80
WIRE -800 128 -800 96
WIRE -480 128 -480 80
WIRE 96 128 96 -16
WIRE 96 128 0 128
WIRE -544 176 -736 176
WIRE 0 176 0 128
WIRE -112 208 -112 160
WIRE -64 208 -112 208
WIRE 144 208 144 48
WIRE -800 256 -800 208
WIRE -112 256 -112 208
WIRE 80 256 0 256
WIRE 272 256 224 256
WIRE -608 272 -608 80
WIRE -736 288 -736 176
WIRE -736 288 -816 288
WIRE -672 320 -720 320
WIRE 144 320 144 304
WIRE 224 320 224 256
WIRE 224 320 144 320
WIRE -816 352 -816 288
WIRE -720 352 -720 320
WIRE 80 416 0 416
WIRE -608 432 -608 368
WIRE -544 432 -608 432
WIRE -480 432 -480 224
WIRE -480 432 -544 432
WIRE -416 432 -480 432
WIRE -544 480 -544 432
WIRE 144 496 144 464
WIRE 208 496 144 496
WIRE -992 512 -992 96
WIRE -816 512 -816 432
WIRE -816 512 -992 512
WIRE -720 512 -720 432
WIRE -720 512 -816 512
WIRE -992 560 -992 512
FLAG -112 256 0
FLAG -176 0 0
FLAG 496 144 0
FLAG 320 112 0
FLAG 0 416 0
FLAG 208 576 0
FLAG -800 256 0
FLAG -544 560 0
FLAG -720 560 0
FLAG -816 560 0
FLAG 272 336 0
SYMBOL voltage -112 64 R0
WINDOW 123 0 0 Left 0
WINDOW 39 0 0 Left 0
SYMATTR InstName V1
SYMATTR Value 5
SYMBOL voltage -272 -160 R0
WINDOW 123 0 0 Left 0
WINDOW 39 0 0 Left 0
SYMATTR InstName V2
SYMATTR Value PULSE(0 5 1 0.001u 0.001u 3)
SYMBOL sw 112 -176 R0
SYMATTR InstName S1
SYMBOL polcap 544 80 R0
WINDOW 3 24 56 Left 2
SYMATTR Value 100µ
SYMATTR InstName C5
SYMATTR Description Capacitor
SYMATTR Type cap
SYMATTR SpiceLine V=25 Irms=145m Rser=0.62 Lser=0 mfg="Nichicon" pn="UPR1E101MPH" type="Al electrolytic"
SYMBOL res 624 192 R0
SYMATTR InstName R2
SYMATTR Value 10k
SYMATTR SpiceLine tol=1
SYMBOL res 528 192 R0
SYMATTR InstName R3
SYMATTR Value 1k
SYMATTR SpiceLine tol=1
SYMBOL npn 576 336 R0
SYMATTR InstName Q3
SYMATTR Value UMT3904
SYMBOL voltage 320 -16 R0
WINDOW 123 0 0 Left 0
WINDOW 39 0 0 Left 0
SYMATTR InstName V3
SYMATTR Value 7
SYMBOL npn 80 208 R0
SYMATTR InstName Q1
SYMATTR Value UMT3904
SYMBOL npn 80 368 R0
SYMATTR InstName Q2
SYMATTR Value UMT3904
SYMBOL res 192 480 R0
SYMATTR InstName R1
SYMATTR Value 1k
SYMATTR SpiceLine tol=1
SYMBOL voltage -800 112 R0
WINDOW 123 0 0 Left 0
WINDOW 39 0 0 Left 0
SYMATTR InstName V4
SYMATTR Value 5
SYMBOL npn -544 128 R0
SYMATTR InstName Q4
SYMATTR Value UMT3904
SYMBOL npn -672 272 R0
SYMATTR InstName Q5
SYMATTR Value UMT3904
SYMBOL res -560 464 R0
SYMATTR InstName R4
SYMATTR Value 1k
SYMATTR SpiceLine tol=1
SYMBOL res -16 160 R0
SYMATTR InstName R6
SYMATTR Value 1k
SYMATTR SpiceLine tol=1
SYMBOL res -832 336 R0
SYMATTR InstName R5
SYMATTR Value 1k
SYMATTR SpiceLine tol=1
SYMBOL res -736 336 R0
SYMATTR InstName R7
SYMATTR Value 1k
SYMATTR SpiceLine tol=1
SYMBOL res 256 240 R0
SYMATTR InstName R8
SYMATTR Value 1k
SYMATTR SpiceLine tol=1
TEXT 256 -88 Left 2 !.model sw sw(Ron=0.001 Roff=100Meg Vt=0.5 Vh=.01)
TEXT 264 -56 Left 2 !.tran 10000ms
TEXT -840 480 Left 2 ;A
TEXT -704 480 Left 2 ;B
TEXT -424 416 Left 2 ;C
